AeroDyn airfoil file Created with QBlade CE v 2.0.5.2_alpha windows on 30.03.2023 at 09:09:27 Compatible with AeroDyn v13.0.
Polar "EPPLER_422_AIRFOIL_Re0.100_M0.00_N9.0 360 M" on Foil "EPPLER 422 AIRFOIL" :: generated by QBlade
1              Number of airfoil tables in this file
0              Table ID parameter
49.00          Stall angle (deg)
0              No longer used, enter zero
0              No longer used, enter zero
0              No longer used, enter zero
-9.07          Angle of attack for zero Cn for linear Cn curve (deg)
3.44000        Cn slope for zero lift for linear Cn curve (1/rad)
-0.1613        Cn at stall value for positive angle of attack for linear Cn curve
-0.7979        Cn at stall value for negative angle of attack for linear Cn curve
-2.50          Angle of attack for minimum CD (deg)
0.0280         Minimum CD value
  -180.000 -0.266057  0.006000 -0.077096
  -179.000 -0.175098  0.006517 -0.050668
  -178.000 -0.095700  0.008063 -0.027600
  -177.000 -0.035475  0.010635 -0.010086
  -176.000  0.003874  0.014226  0.001404
  -175.000  0.027593  0.018827  0.008415
  -174.000  0.043174  0.024431  0.013135
  -173.000  0.056213  0.031027  0.017191
  -172.000  0.069578  0.038603  0.021419
  -171.000  0.084262  0.047148  0.026112
  -170.000  0.100324  0.056647  0.031291
  -169.000  0.117459  0.067087  0.036876
  -168.000  0.135276  0.078451  0.042760
  -167.000  0.153407  0.090723  0.048844
  -166.000  0.171536  0.103884  0.055047
  -165.000  0.189411  0.117917  0.061304
  -164.000  0.206830  0.132801  0.067565
  -163.000  0.223638  0.148515  0.073796
  -162.000  0.239711  0.165038  0.079969
  -161.000  0.254955  0.182347  0.086066
  -160.000  0.269299  0.200419  0.092076
  -159.000  0.282687  0.219229  0.097992
  -158.000  0.295079  0.238753  0.103810
  -157.000  0.306446  0.258964  0.109531
  -156.000  0.316770  0.279836  0.115157
  -155.000  0.326041  0.301341  0.120694
  -154.000  0.334254  0.323452  0.126147
  -153.000  0.341414  0.346140  0.131523
  -152.000  0.347527  0.369376  0.136831
  -151.000  0.352607  0.393131  0.142081
  -150.000  0.356671  0.417373  0.147283
  -149.000  0.359740  0.442073  0.152445
  -148.000  0.361839  0.467200  0.157580
  -147.000  0.362995  0.492721  0.162697
  -146.000  0.363238  0.518604  0.167806
  -145.000  0.362601  0.544819  0.172918
  -144.000  0.361119  0.571332  0.178044
  -143.000  0.358828  0.598110  0.183192
  -142.000  0.355768  0.625121  0.188371
  -141.000  0.351977  0.652331  0.193590
  -140.000  0.347497  0.679707  0.198858
  -139.000  0.342371  0.707217  0.204180
  -138.000  0.336640  0.734825  0.209563
  -137.000  0.330350  0.762500  0.215012
  -136.000  0.323543  0.790208  0.220532
  -135.000  0.316263  0.817915  0.226127
  -134.000  0.308555  0.845588  0.231798
  -133.000  0.300462  0.873195  0.237548
  -132.000  0.292027  0.900701  0.243375
  -131.000  0.283294  0.928075  0.249280
  -130.000  0.274304  0.955285  0.255261
  -129.000  0.265098  0.982297  0.261314
  -128.000  0.255716  1.009080  0.267436
  -127.000  0.246198  1.035602  0.273621
  -126.000  0.236580  1.061833  0.279863
  -125.000  0.226899  1.087741  0.286154
  -124.000  0.217188  1.113297  0.292487
  -123.000  0.207480  1.138470  0.298851
  -122.000  0.197807  1.163231  0.305237
  -121.000  0.188196  1.187552  0.311634
  -120.000  0.178675  1.211404  0.318029
  -119.000  0.169269  1.234759  0.324410
  -118.000  0.160000  1.257591  0.330763
  -117.000  0.150889  1.279873  0.337075
  -116.000  0.141954  1.301580  0.343331
  -115.000  0.133211  1.322686  0.349516
  -114.000  0.124675  1.343168  0.355614
  -113.000  0.116356  1.363002  0.361611
  -112.000  0.107588  1.382165  0.367420
  -111.000  0.099752  1.400635  0.373171
  -110.000  0.092155  1.418391  0.378773
  -109.000  0.084801  1.435413  0.384209
  -108.000  0.077689  1.451682  0.389464
  -107.000  0.070818  1.467180  0.394523
  -106.000  0.064188  1.481887  0.399371
  -105.000  0.057791  1.495788  0.403992
  -104.000  0.051622  1.508868  0.408373
  -103.000  0.045673  1.521110  0.412501
  -102.000  0.039935  1.532502  0.416363
  -101.000  0.034395  1.543031  0.419946
  -100.000  0.029042  1.552684  0.423239
   -99.000  0.023862  1.561451  0.426232
   -98.000  0.018840  1.569321  0.428915
   -97.000  0.013960  1.576287  0.431279
   -96.000  0.009207  1.582339  0.433317
   -95.000  0.004563  1.587472  0.435022
   -94.000  0.000009  1.591679  0.436389
   -93.000 -0.004470  1.594956  0.437414
   -92.000 -0.008895  1.597299  0.438092
   -91.000 -0.013284  1.598705  0.438422
   -90.000 -0.017655  1.599173  0.438404
   -89.000 -0.022025  1.598702  0.438035
   -88.000 -0.026414  1.597293  0.437319
   -87.000 -0.030839  1.594948  0.436258
   -86.000 -0.035317  1.591668  0.434854
   -85.000 -0.039864  1.587458  0.433112
   -84.000 -0.044495  1.582323  0.431038
   -83.000 -0.049226  1.576267  0.428638
   -82.000 -0.054070  1.569299  0.425920
   -81.000 -0.059038  1.561426  0.422892
   -80.000 -0.064144  1.552656  0.419563
   -79.000 -0.069395  1.543000  0.415943
   -78.000 -0.074802  1.532468  0.412043
   -77.000 -0.080371  1.521073  0.407875
   -76.000 -0.086107  1.508826  0.403449
   -75.000 -0.092015  1.495743  0.398780
   -74.000 -0.098096  1.481838  0.393879
   -73.000 -0.104352  1.467127  0.388761
   -72.000 -0.110781  1.451626  0.383439
   -71.000 -0.117380  1.435352  0.377927
   -70.000 -0.124145  1.418325  0.372240
   -69.000 -0.131069  1.400564  0.366391
   -68.000 -0.138145  1.382089  0.360395
   -67.000 -0.145361  1.362921  0.354267
   -66.000 -0.152707  1.343082  0.348020
   -65.000 -0.160170  1.322594  0.341669
   -64.000 -0.167733  1.301481  0.335227
   -63.000 -0.175381  1.279768  0.328709
   -62.000 -0.183095  1.257478  0.322126
   -61.000 -0.190855  1.234639  0.315493
   -60.000 -0.198641  1.211275  0.308821
   -59.000 -0.206428  1.187414  0.302122
   -58.000 -0.214195  1.163084  0.295407
   -57.000 -0.221915  1.138313  0.288687
   -56.000 -0.229562  1.113128  0.281972
   -55.000 -0.237109  1.087561  0.275270
   -54.000 -0.244528  1.061639  0.268592
   -53.000 -0.251790  1.035394  0.261944
   -52.000 -0.258865  1.008857  0.255334
   -51.000 -0.265724  0.982057  0.248769
   -50.000 -0.272334  0.955026  0.242253
   -49.000 -0.278667  0.927797  0.235792
   -48.000 -0.284690  0.900400  0.229390
   -47.000 -0.290373  0.872869  0.223051
   -46.000 -0.295685  0.845236  0.216776
   -45.000 -0.300597  0.817532  0.210569
   -44.000 -0.305077  0.789792  0.204431
   -43.000 -0.309099  0.762047  0.198362
   -42.000 -0.312633  0.734330  0.192364
   -41.000 -0.315655  0.706674  0.186434
   -40.000 -0.318139  0.679111  0.180575
   -39.000 -0.320063  0.651674  0.174783
   -38.000 -0.321409  0.624394  0.169060
   -37.000 -0.322159  0.597303  0.163402
   -36.000 -0.322303  0.570433  0.157811
   -35.000 -0.321834  0.543813  0.152286
   -34.000 -0.320753  0.517474  0.146827
   -33.000 -0.319070  0.491443  0.141438
   -32.000 -0.316805  0.465747  0.136122
   -31.000 -0.313997  0.440411  0.130887
   -30.000 -0.310703  0.415458  0.125745
   -29.000 -0.307013  0.390906  0.120715
   -28.000 -0.303058  0.366769  0.110087
   -27.000 -0.299031  0.343054  0.099460
   -26.000 -0.295218  0.319758  0.088832
   -25.000 -0.292041  0.296863  0.078204
   -24.000 -0.290142  0.274328  0.067577
   -23.000 -0.290502  0.252079  0.056949
   -22.000 -0.294657  0.229986  0.046321
   -21.000 -0.305047  0.207833  0.035694
   -20.000 -0.325582  0.185270  0.025066
   -19.000 -0.362452  0.161752  0.014438
   -18.000 -0.424821  0.136509  0.003811
   -17.000 -0.523510  0.108753 -0.006817
   -16.000 -0.661835  0.078657 -0.017445
   -15.000 -0.812812  0.049433 -0.028072
   -14.000 -0.229300  0.177910 -0.038700
   -13.500 -0.218600  0.172870 -0.040400
   -13.000 -0.194500  0.154770 -0.040500
   -12.500 -0.171200  0.146410 -0.039700
   -12.000 -0.156600  0.140930 -0.039700
   -11.000 -0.138700  0.131930 -0.039700
   -10.500 -0.138000  0.128860 -0.039600
   -10.000 -0.090900  0.123570 -0.057000
    -9.500 -0.043900  0.119390 -0.074500
    -9.000  0.007500  0.111500 -0.088000
    -8.500  0.050500  0.094970 -0.087700
    -7.500  0.095500  0.085910 -0.089900
    -7.000  0.094600  0.085590 -0.094300
    -6.500  0.106100  0.085010 -0.101300
    -6.000  0.116600  0.075070 -0.106200
    -5.500  0.140600  0.068520 -0.102300
    -5.000  0.166000  0.063860 -0.102700
    -4.500  0.203900  0.050490 -0.119300
    -4.000  0.244600  0.040700 -0.126200
    -3.500  0.288900  0.032850 -0.129600
    -3.000  0.335000  0.029070 -0.129000
    -2.500  0.382000  0.027960 -0.127500
    -2.000  0.429800  0.028180 -0.125500
    -1.500  0.480800  0.028310 -0.124200
    -1.000  0.525600  0.029020 -0.122900
    -0.500  0.568800  0.029510 -0.121300
     0.000  0.610200  0.029860 -0.120000
     0.500  0.651100  0.031000 -0.118300
     1.000  0.694100  0.031710 -0.117000
     1.500  0.746800  0.032080 -0.116400
     2.000  0.809300  0.032550 -0.117700
     2.500  0.820300  0.036380 -0.113900
     3.000  0.686500  0.051680 -0.104000
     3.500  0.678900  0.058360 -0.102400
     4.000  0.736800  0.059030 -0.101300
     4.500  0.815000  0.057950 -0.100300
     5.000  0.883700  0.058770 -0.098900
     5.500  0.733300  0.079010 -0.098000
     6.000  0.714300  0.086770 -0.097600
     6.500  0.712600  0.093890 -0.097700
     7.500  0.813900  0.114380 -0.101500
     8.000  0.860200  0.101170 -0.094900
     8.500  0.801200  0.111170 -0.095100
     9.000  0.809700  0.119480 -0.096200
    10.000  0.956000  0.116880 -0.090900
    10.500  0.858700  0.128730 -0.093900
    11.000  0.881500  0.132870 -0.093800
    11.500  0.984500  0.129360 -0.090000
    12.000  0.920700  0.141790 -0.093900
    12.500  0.944400  0.144690 -0.093600
    13.000  1.020600  0.142580 -0.090300
    13.500  0.982400  0.154140 -0.094400
    14.000  0.976700  0.161690 -0.097300
    14.500  1.042800  0.159240 -0.093800
    15.000  1.049900  0.165620 -0.095400
    15.500  1.022900  0.176200 -0.101200
    16.000  1.050200  0.179320 -0.101400
    16.500  1.128600  0.174340 -0.094900
    17.000  1.064000  0.191960 -0.106500
    17.500  1.077400  0.197800 -0.108500
    18.000  1.138000  0.194460 -0.104200
    18.500  1.101800  0.210730 -0.112800
    19.000  1.098400  0.220600 -0.117700
    19.500  1.140900  0.219950 -0.115400
    20.000  1.149500  0.229020 -0.117600
    21.000  0.999348  0.222903 -0.134343
    22.000  1.023223  0.244123 -0.151087
    23.000  1.047363  0.266124 -0.167830
    24.000  1.071591  0.288882 -0.184574
    25.000  1.095754  0.312373 -0.201317
    26.000  1.119717  0.336570 -0.218061
    27.000  1.143359  0.361448 -0.234804
    28.000  1.166574  0.386979 -0.251547
    29.000  1.189266  0.413133 -0.268291
    30.000  1.211346  0.439883 -0.285034
    31.000  1.232735  0.467198 -0.301778
    32.000  1.253359  0.495045 -0.318521
    33.000  1.273152  0.523395 -0.335264
    34.000  1.292050  0.552213 -0.352008
    35.000  1.309996  0.581466 -0.368751
    36.000  1.326936  0.611120 -0.375887
    37.000  1.342818  0.641141 -0.382884
    38.000  1.357597  0.671491 -0.389731
    39.000  1.371227  0.702136 -0.396420
    40.000  1.383669  0.733038 -0.402941
    41.000  1.394883  0.764161 -0.409287
    42.000  1.404834  0.795467 -0.415452
    43.000  1.413489  0.826917 -0.421427
    44.000  1.420817  0.858475 -0.427208
    45.000  1.426791  0.890101 -0.432788
    46.000  1.431384  0.921757 -0.438165
    47.000  1.434573  0.953403 -0.443333
    48.000  1.436336  0.985001 -0.448289
    49.000  1.436655  1.016512 -0.453030
    50.000  1.435513  1.047897 -0.457555
    51.000  1.432896  1.079117 -0.461861
    52.000  1.428792  1.110133 -0.465947
    53.000  1.423190  1.140907 -0.469813
    54.000  1.416083  1.171399 -0.473459
    55.000  1.407466  1.201573 -0.476885
    56.000  1.397335  1.231389 -0.480092
    57.000  1.385689  1.260811 -0.483083
    58.000  1.372530  1.289801 -0.485859
    59.000  1.357861  1.318324 -0.488423
    60.000  1.341687  1.346342 -0.490779
    61.000  1.324017  1.373821 -0.492928
    62.000  1.304860  1.400725 -0.494877
    63.000  1.284228  1.427021 -0.496629
    64.000  1.262136  1.452675 -0.498189
    65.000  1.238601  1.477655 -0.499562
    66.000  1.213641  1.501928 -0.500755
    67.000  1.187276  1.525464 -0.501772
    68.000  1.159530  1.548233 -0.502622
    69.000  1.130427  1.570205 -0.503310
    70.000  1.099995  1.591353 -0.503843
    71.000  1.068263  1.611649 -0.504229
    72.000  1.035261  1.631068 -0.504475
    73.000  1.001023  1.649584 -0.504588
    74.000  0.965583  1.667174 -0.504577
    75.000  0.928979  1.683815 -0.504450
    76.000  0.891250  1.699485 -0.504214
    77.000  0.852435  1.714165 -0.503879
    78.000  0.812577  1.727836 -0.503451
    79.000  0.771721  1.740480 -0.502939
    80.000  0.729911  1.752081 -0.502352
    81.000  0.687196  1.762624 -0.501697
    82.000  0.643625  1.772095 -0.500982
    83.000  0.599248  1.780482 -0.500216
    84.000  0.554117  1.787774 -0.499407
    85.000  0.508286  1.793962 -0.498561
    86.000  0.461809  1.799038 -0.497686
    87.000  0.414743  1.802996 -0.496789
    88.000  0.367144  1.805829 -0.495876
    89.000  0.319073  1.807536 -0.494955
    90.000  0.270586  1.808112 -0.494032
    91.000  0.221747  1.807559 -0.493111
    92.000  0.172615  1.805876 -0.492198
    93.000  0.123252  1.803066 -0.491299
    94.000  0.073723  1.799132 -0.490416
    95.000  0.024091  1.794079 -0.489555
    96.000 -0.025581  1.787915 -0.488719
    97.000 -0.075227  1.780647 -0.487909
    98.000 -0.124783  1.772284 -0.487129
    99.000 -0.174183  1.762837 -0.486380
   100.000 -0.223361  1.752319 -0.485663
   101.000 -0.272253  1.740744 -0.484979
   102.000 -0.320792  1.728125 -0.484327
   103.000 -0.368914  1.714481 -0.483706
   104.000 -0.416553  1.699827 -0.483116
   105.000 -0.463643  1.684183 -0.482553
   106.000 -0.511768  1.667570 -0.482141
   107.000 -0.557562  1.650008 -0.481633
   108.000 -0.602619  1.631521 -0.481142
   109.000 -0.646877  1.612132 -0.480665
   110.000 -0.690273  1.591866 -0.480196
   111.000 -0.732748  1.570749 -0.479730
   112.000 -0.774241  1.548809 -0.479259
   113.000 -0.814696  1.526073 -0.478778
   114.000 -0.854055  1.502571 -0.478279
   115.000 -0.892263  1.478333 -0.477754
   116.000 -0.929267  1.453389 -0.477195
   117.000 -0.965014  1.427773 -0.476592
   118.000 -0.999454  1.401515 -0.475938
   119.000 -1.032540  1.374651 -0.475222
   120.000 -1.064224  1.347213 -0.474434
   121.000 -1.094463  1.319238 -0.473564
   122.000 -1.123215  1.290760 -0.472603
   123.000 -1.150441  1.261816 -0.471539
   124.000 -1.176102  1.232442 -0.470362
   125.000 -1.200166  1.202676 -0.469061
   126.000 -1.222599  1.172555 -0.467625
   127.000 -1.243372  1.142117 -0.466045
   128.000 -1.262459  1.111400 -0.464308
   129.000 -1.279837  1.080444 -0.462406
   130.000 -1.295484  1.049286 -0.460327
   131.000 -1.309384  1.017966 -0.458061
   132.000 -1.321521  0.986523 -0.455599
   133.000 -1.331884  0.954996 -0.452932
   134.000 -1.340466  0.923425 -0.450051
   135.000 -1.347261  0.891848 -0.446947
   136.000 -1.352269  0.860305 -0.443613
   137.000 -1.355492  0.828835 -0.440042
   138.000 -1.356935  0.797476 -0.436227
   139.000 -1.356607  0.766267 -0.432163
   140.000 -1.354523  0.735246 -0.427844
   141.000 -1.350698  0.704452 -0.423267
   142.000 -1.345154  0.673921 -0.418429
   143.000 -1.337915  0.643691 -0.413328
   144.000 -1.329010  0.613799 -0.407963
   145.000 -1.318473  0.584280 -0.402335
   146.000 -1.306342  0.555171 -0.396444
   147.000 -1.292659  0.526506 -0.390295
   148.000 -1.277474  0.498319 -0.383892
   149.000 -1.260841  0.470644 -0.377242
   150.000 -1.242822  0.443514 -0.370353
   151.000 -1.223486  0.416960 -0.363237
   152.000 -1.202912  0.391015 -0.355906
   153.000 -1.181191  0.365708 -0.348380
   154.000 -1.158428  0.341069 -0.340679
   155.000 -1.134747  0.317126 -0.332830
   156.000 -1.110295  0.293907 -0.324868
   157.000 -1.085255  0.271439 -0.316837
   158.000 -1.059853  0.249746 -0.308794
   159.000 -1.034378  0.228854 -0.300815
   160.000 -1.009208  0.208786 -0.292999
   161.000 -0.984850  0.189564 -0.285486
   162.000 -0.961994  0.171209 -0.278466
   163.000 -0.941597  0.153742 -0.272207
   164.000 -0.924982  0.137180 -0.267084
   165.000 -0.913963  0.121543 -0.263614
   166.000 -0.910882  0.106845 -0.262469
   167.000 -0.918338  0.093103 -0.264405
   168.000 -0.938007  0.080330 -0.269925
   169.000 -0.967707  0.068540 -0.278439
   170.000 -0.997108  0.057742 -0.287018
   171.000 -1.007361  0.047948 -0.290250
   172.000 -0.981885  0.039167 -0.283301
   173.000 -0.920141  0.031405 -0.265907
   174.000 -0.835523  0.024670 -0.241840
   175.000 -0.742012  0.018966 -0.215098
   176.000 -0.646856  0.014297 -0.187773
   177.000 -0.551656  0.010666 -0.160334
   178.000 -0.456457  0.008073 -0.132806
   179.000 -0.361257  0.006518 -0.105196
   180.000 -0.266057  0.006000 -0.077516
   180.000 -0.266057  0.006000 -0.077096
