AeroDyn airfoil file Created with QBlade CE v 2.0.5.2_alpha windows on 29.03.2023 at 20:22:13 Compatible with AeroDyn v13.0.
Polar "EPPLER_422_AIRFOIL_Re0.150_M0.00_N9.0 360 M" on Foil "EPPLER 422 AIRFOIL" :: generated by QBlade
1              Number of airfoil tables in this file
0              Table ID parameter
49.00          Stall angle (deg)
0              No longer used, enter zero
0              No longer used, enter zero
0              No longer used, enter zero
0.00           Angle of attack for zero Cn for linear Cn curve (deg)
5.89977        Cn slope for zero lift for linear Cn curve (1/rad)
-0.1698        Cn at stall value for positive angle of attack for linear Cn curve
-0.7105        Cn at stall value for negative angle of attack for linear Cn curve
-2.50          Angle of attack for minimum CD (deg)
0.0198         Minimum CD value
  -180.000 -0.279966  0.006000 -0.114750
  -179.000 -0.182860  0.006517 -0.074589
  -178.000 -0.101560  0.008063 -0.041151
  -177.000 -0.043296  0.010635 -0.017282
  -176.000 -0.007171  0.014226 -0.002485
  -175.000  0.014224  0.018827  0.006350
  -174.000  0.028833  0.024431  0.012490
  -173.000  0.041788  0.031027  0.018026
  -172.000  0.055438  0.038603  0.023906
  -171.000  0.070470  0.047148  0.030406
  -170.000  0.086805  0.056647  0.037494
  -169.000  0.104095  0.067087  0.045038
  -168.000  0.121946  0.078451  0.052886
  -167.000  0.139997  0.090723  0.060905
  -166.000  0.157949  0.103884  0.068988
  -165.000  0.175559  0.117917  0.077052
  -164.000  0.192637  0.132801  0.085035
  -163.000  0.209033  0.148515  0.092892
  -162.000  0.224633  0.165038  0.100593
  -161.000  0.239347  0.182347  0.108117
  -160.000  0.253107  0.200419  0.115451
  -159.000  0.265863  0.219229  0.122590
  -158.000  0.277577  0.238753  0.129533
  -157.000  0.288226  0.258964  0.136283
  -156.000  0.297793  0.279836  0.142847
  -155.000  0.306271  0.301341  0.149234
  -154.000  0.313662  0.323452  0.155456
  -153.000  0.319970  0.346140  0.161523
  -152.000  0.325207  0.369377  0.167451
  -151.000  0.329391  0.393131  0.173252
  -150.000  0.332543  0.417374  0.178943
  -149.000  0.334687  0.442073  0.184538
  -148.000  0.335852  0.467200  0.190052
  -147.000  0.336069  0.492721  0.195500
  -146.000  0.335374  0.518605  0.200897
  -145.000  0.333803  0.544819  0.206256
  -144.000  0.331396  0.571332  0.211592
  -143.000  0.328193  0.598110  0.216917
  -142.000  0.324238  0.625121  0.222243
  -141.000  0.319576  0.652331  0.227580
  -140.000  0.314251  0.679708  0.232938
  -139.000  0.308311  0.707217  0.238326
  -138.000  0.301803  0.734826  0.243750
  -137.000  0.294775  0.762501  0.249218
  -136.000  0.287274  0.790208  0.254732
  -135.000  0.279350  0.817915  0.260297
  -134.000  0.271050  0.845589  0.265915
  -133.000  0.262423  0.873195  0.271585
  -132.000  0.253514  0.900702  0.277307
  -131.000  0.244371  0.928076  0.283077
  -130.000  0.235038  0.955285  0.288893
  -129.000  0.225561  0.982297  0.294748
  -128.000  0.215982  1.009080  0.300637
  -127.000  0.206343  1.035603  0.306551
  -126.000  0.196684  1.061834  0.312480
  -125.000  0.187042  1.087742  0.318416
  -124.000  0.177454  1.113298  0.324345
  -123.000  0.167955  1.138471  0.330256
  -122.000  0.158576  1.163232  0.336136
  -121.000  0.149348  1.187553  0.341969
  -120.000  0.140298  1.211405  0.347742
  -119.000  0.131451  1.234760  0.353438
  -118.000  0.122831  1.257592  0.359041
  -117.000  0.114456  1.279874  0.364535
  -116.000  0.106347  1.301581  0.369903
  -115.000  0.098517  1.322687  0.375127
  -114.000  0.090979  1.343169  0.380191
  -113.000  0.083744  1.363003  0.385077
  -112.000  0.076132  1.382166  0.389693
  -111.000  0.069544  1.400636  0.394179
  -110.000  0.063273  1.418392  0.398438
  -109.000  0.057320  1.435415  0.402452
  -108.000  0.051682  1.451684  0.406208
  -107.000  0.046355  1.467181  0.409689
  -106.000  0.041334  1.481888  0.412883
  -105.000  0.036608  1.495790  0.415776
  -104.000  0.032168  1.508869  0.418356
  -103.000  0.028002  1.521112  0.420613
  -102.000  0.024095  1.532504  0.422535
  -101.000  0.020432  1.543033  0.424114
  -100.000  0.016996  1.552686  0.425343
   -99.000  0.013767  1.561453  0.426214
   -98.000  0.010726  1.569323  0.426723
   -97.000  0.007852  1.576289  0.426865
   -96.000  0.005125  1.582341  0.426639
   -95.000  0.002520  1.587474  0.426042
   -94.000  0.000015  1.591682  0.425075
   -93.000 -0.002413  1.594959  0.423738
   -92.000 -0.004789  1.597302  0.422035
   -91.000 -0.007135  1.598708  0.419969
   -90.000 -0.009476  1.599176  0.417545
   -89.000 -0.011835  1.598706  0.414770
   -88.000 -0.014235  1.597297  0.411651
   -87.000 -0.016700  1.594952  0.408196
   -86.000 -0.019250  1.591672  0.404417
   -85.000 -0.021908  1.587462  0.400322
   -84.000 -0.024693  1.582327  0.395923
   -83.000 -0.027624  1.576272  0.391234
   -82.000 -0.030719  1.569304  0.386267
   -81.000 -0.033996  1.561431  0.381036
   -80.000 -0.037468  1.552661  0.375557
   -79.000 -0.041150  1.543005  0.369843
   -78.000 -0.045053  1.532474  0.363911
   -77.000 -0.049188  1.521079  0.357777
   -76.000 -0.053563  1.508833  0.351457
   -75.000 -0.058185  1.495750  0.344968
   -74.000 -0.063058  1.481846  0.338327
   -73.000 -0.068185  1.467135  0.331549
   -72.000 -0.073566  1.451634  0.324652
   -71.000 -0.079201  1.435361  0.317653
   -70.000 -0.085086  1.418335  0.310568
   -69.000 -0.091214  1.400574  0.303412
   -68.000 -0.097580  1.382100  0.296203
   -67.000 -0.104172  1.362932  0.288954
   -66.000 -0.110980  1.343094  0.281682
   -65.000 -0.117989  1.322607  0.274401
   -64.000 -0.125185  1.301495  0.267124
   -63.000 -0.132549  1.279782  0.259865
   -62.000 -0.140062  1.257494  0.252636
   -61.000 -0.147703  1.234655  0.245449
   -60.000 -0.155449  1.211293  0.238316
   -59.000 -0.163276  1.187433  0.231246
   -58.000 -0.171157  1.163104  0.224250
   -57.000 -0.179066  1.138334  0.217336
   -56.000 -0.186972  1.113152  0.210512
   -55.000 -0.194847  1.087586  0.203785
   -54.000 -0.202659  1.061666  0.197162
   -53.000 -0.210376  1.035424  0.190649
   -52.000 -0.217966  1.008888  0.184249
   -51.000 -0.225393  0.982091  0.177967
   -50.000 -0.232625  0.955063  0.171806
   -49.000 -0.239627  0.927837  0.165770
   -48.000 -0.246363  0.900444  0.159858
   -47.000 -0.252800  0.872917  0.154073
   -46.000 -0.258902  0.845288  0.148415
   -45.000 -0.264636  0.817589  0.142883
   -44.000 -0.269966  0.789854  0.137478
   -43.000 -0.274861  0.762116  0.132198
   -42.000 -0.279287  0.734406  0.127041
   -41.000 -0.283215  0.706758  0.122005
   -40.000 -0.286615  0.679205  0.117089
   -39.000 -0.289460  0.651779  0.112289
   -38.000 -0.291726  0.624512  0.107603
   -37.000 -0.293391  0.597436  0.103029
   -36.000 -0.294438  0.570584  0.098564
   -35.000 -0.294854  0.543985  0.094205
   -34.000 -0.294633  0.517670  0.089952
   -33.000 -0.293775  0.491669  0.085803
   -32.000 -0.292292  0.466009  0.081758
   -31.000 -0.290209  0.440718  0.077819
   -30.000 -0.287568  0.415820  0.073990
   -29.000 -0.284437  0.391337  0.070387
   -28.000 -0.280917  0.367288  0.063181
   -27.000 -0.277160  0.343687  0.055975
   -26.000 -0.273388  0.320539  0.048769
   -25.000 -0.269935  0.297842  0.041563
   -24.000 -0.267297  0.275575  0.034357
   -23.000 -0.266233  0.253697  0.027151
   -22.000 -0.267921  0.232129  0.019945
   -21.000 -0.274222  0.210733  0.012739
   -20.000 -0.288130  0.189282  0.005533
   -19.000 -0.314486  0.167403 -0.001673
   -18.000 -0.360962  0.144519 -0.008879
   -17.000 -0.438625  0.119852 -0.016085
   -16.000 -0.558881  0.092771 -0.023291
   -15.000 -0.718413  0.064117 -0.030497
   -14.500 -0.216800  0.164080 -0.034100
   -14.000 -0.201800  0.158590 -0.035100
   -13.500 -0.188300  0.153480 -0.036100
   -12.000 -0.154300  0.138790 -0.039000
   -11.500 -0.146000  0.134300 -0.039800
   -11.000 -0.144400  0.131620 -0.040700
   -10.000 -0.048200  0.118220 -0.070900
    -9.500  0.006900  0.109170 -0.084600
    -9.000  0.021300  0.096550 -0.087300
    -8.500  0.051200  0.091050 -0.086000
    -8.000  0.070000  0.086760 -0.086200
    -7.500  0.085100  0.082480 -0.087500
    -7.000  0.096000  0.078640 -0.090400
    -6.000  0.129600  0.072880 -0.103500
    -5.500  0.138200  0.061400 -0.109200
    -5.000  0.166600  0.056710 -0.108000
    -4.500  0.206600  0.037100 -0.125400
    -4.000  0.247600  0.027340 -0.128900
    -3.500  0.296900  0.023600 -0.128500
    -3.000  0.346700  0.021050 -0.127400
    -2.500  0.398100  0.019800 -0.126100
    -2.000  0.450000  0.020440 -0.125000
    -1.500  0.502800  0.020820 -0.124100
    -1.000  0.555400  0.020970 -0.123300
    -0.500  0.604600  0.021770 -0.122500
     0.000  0.655500  0.021740 -0.121500
     0.500  0.705400  0.021860 -0.120600
     1.000  0.754000  0.022220 -0.119400
     1.500  0.803300  0.022420 -0.118400
     2.000  0.853100  0.021910 -0.117200
     2.500  0.925100  0.022090 -0.120100
     3.000  0.966400  0.024410 -0.118400
     3.500  1.004100  0.026200 -0.116200
     4.000  1.043300  0.027500 -0.114200
     4.500  1.077900  0.029200 -0.111700
     5.000  1.109800  0.031130 -0.109000
     5.500  1.146700  0.032340 -0.106600
     6.000  1.187800  0.033430 -0.104700
     6.500  1.234100  0.034550 -0.103500
     7.000  1.231300  0.040960 -0.098500
     7.500  0.976400  0.068250 -0.087600
     8.000  1.023700  0.068730 -0.085900
     8.500  1.075700  0.068710 -0.084100
     9.000  0.953100  0.089580 -0.086000
     9.500  0.987000  0.091650 -0.084900
    10.000  1.037900  0.091640 -0.083300
    10.500  1.095200  0.090220 -0.081000
    11.000  1.013800  0.107280 -0.084300
    11.500  1.049500  0.108830 -0.083400
    12.000  1.099500  0.108000 -0.081500
    12.500  1.157100  0.105540 -0.078800
    13.000  1.080100  0.123680 -0.084000
    13.500  1.121800  0.123570 -0.082500
    14.000  1.171400  0.121810 -0.080300
    14.500  1.119000  0.137870 -0.085900
    15.000  1.152000  0.138850 -0.085200
    15.500  1.197400  0.137290 -0.083500
    16.000  1.250800  0.133880 -0.080800
    16.500  1.182400  0.154220 -0.089500
    17.000  1.226500  0.152250 -0.087800
    18.000  1.198300  0.172550 -0.096900
    19.000  1.301800  0.163410 -0.091900
    19.500  1.207900  0.194550 -0.106600
    20.000  0.955453  0.207037 -0.110897
    21.000  0.983387  0.227303 -0.119490
    22.000  1.011492  0.248363 -0.128083
    23.000  1.039554  0.270199 -0.136676
    24.000  1.067400  0.292791 -0.145269
    25.000  1.094894  0.316117 -0.153863
    26.000  1.121917  0.340153 -0.162456
    27.000  1.148372  0.364874 -0.171049
    28.000  1.174172  0.390253 -0.179642
    29.000  1.199240  0.416262 -0.188235
    30.000  1.223506  0.442872 -0.196829
    31.000  1.246907  0.470054 -0.205422
    32.000  1.269385  0.497774 -0.214015
    33.000  1.290884  0.526003 -0.222608
    34.000  1.311353  0.554705 -0.231201
    35.000  1.330746  0.583849 -0.242508
    36.000  1.349016  0.613398 -0.249496
    37.000  1.366122  0.643319 -0.256453
    38.000  1.382023  0.673575 -0.263372
    39.000  1.396681  0.704130 -0.270243
    40.000  1.410061  0.734947 -0.277059
    41.000  1.422129  0.765988 -0.283811
    42.000  1.432854  0.797217 -0.290493
    43.000  1.442206  0.828594 -0.297097
    44.000  1.450159  0.860081 -0.303616
    45.000  1.456687  0.891640 -0.310044
    46.000  1.461767  0.923232 -0.316373
    47.000  1.465379  0.954818 -0.322598
    48.000  1.467502  0.986358 -0.328713
    49.000  1.468121  1.017814 -0.334712
    50.000  1.467220  1.049146 -0.340592
    51.000  1.464787  1.080315 -0.346346
    52.000  1.460811  1.111283 -0.351971
    53.000  1.455284  1.142010 -0.357463
    54.000  1.448200  1.172458 -0.362819
    55.000  1.439555  1.202590 -0.368036
    56.000  1.429346  1.232365 -0.373111
    57.000  1.417574  1.261749 -0.378042
    58.000  1.404242  1.290702 -0.382827
    59.000  1.389353  1.319189 -0.387466
    60.000  1.372915  1.347173 -0.391958
    61.000  1.354936  1.374619 -0.396303
    62.000  1.335428  1.401492 -0.400501
    63.000  1.314404  1.427758 -0.404552
    64.000  1.291879  1.453384 -0.408459
    65.000  1.267870  1.478335 -0.412221
    66.000  1.242399  1.502582 -0.415843
    67.000  1.215485  1.526093 -0.419326
    68.000  1.187154  1.548837 -0.422673
    69.000  1.157431  1.570786 -0.425888
    70.000  1.126344  1.591911 -0.428975
    71.000  1.093924  1.612185 -0.431937
    72.000  1.060202  1.631583 -0.434780
    73.000  1.025212  1.650079 -0.437507
    74.000  0.988991  1.667649 -0.440125
    75.000  0.951577  1.684271 -0.442639
    76.000  0.913009  1.699924 -0.445054
    77.000  0.873329  1.714587 -0.447377
    78.000  0.832580  1.728241 -0.449614
    79.000  0.790808  1.740869 -0.451772
    80.000  0.748060  1.752455 -0.453856
    81.000  0.704384  1.762983 -0.455874
    82.000  0.659831  1.772439 -0.457832
    83.000  0.614451  1.780813 -0.459738
    84.000  0.568299  1.788092 -0.461597
    85.000  0.521430  1.794267 -0.463417
    86.000  0.473898  1.799331 -0.465205
    87.000  0.425761  1.803276 -0.466967
    88.000  0.377078  1.806099 -0.468710
    89.000  0.327909  1.807794 -0.470440
    90.000  0.278315  1.808360 -0.472163
    91.000  0.228356  1.807796 -0.473884
    92.000  0.178096  1.806103 -0.475610
    93.000  0.127598  1.803284 -0.477346
    94.000  0.076927  1.799341 -0.479095
    95.000  0.026147  1.794279 -0.480863
    96.000 -0.024675  1.788107 -0.482653
    97.000 -0.075475  1.780830 -0.484469
    98.000 -0.126185  1.772460 -0.486314
    99.000 -0.176739  1.763005 -0.488189
   100.000 -0.227070  1.752480 -0.490097
   101.000 -0.277111  1.740898 -0.492037
   102.000 -0.326795  1.728273 -0.494012
   103.000 -0.376056  1.714621 -0.496020
   104.000 -0.424826  1.699961 -0.498060
   105.000 -0.473040  1.684312 -0.500131
   106.000 -0.521245  1.667692 -0.502278
   107.000 -0.568164  1.650125 -0.504406
   108.000 -0.614333  1.631633 -0.506555
   109.000 -0.659687  1.612238 -0.508721
   110.000 -0.704163  1.591968 -0.510897
   111.000 -0.747699  1.570846 -0.513077
   112.000 -0.790235  1.548901 -0.515254
   113.000 -0.831712  1.526161 -0.517420
   114.000 -0.872071  1.502655 -0.519568
   115.000 -0.911256  1.478412 -0.521686
   116.000 -0.949211  1.453465 -0.523766
   117.000 -0.985884  1.427844 -0.525796
   118.000 -1.021222  1.401583 -0.527766
   119.000 -1.055177  1.374715 -0.529663
   120.000 -1.087701  1.347275 -0.531474
   121.000 -1.118748  1.319296 -0.533187
   122.000 -1.148276  1.290815 -0.534788
   123.000 -1.176244  1.261868 -0.536262
   124.000 -1.202613  1.232492 -0.537597
   125.000 -1.227348  1.202723 -0.538776
   126.000 -1.250415  1.172599 -0.539785
   127.000 -1.271786  1.142159 -0.540608
   128.000 -1.291431  1.111440 -0.541231
   129.000 -1.309327  1.080481 -0.541639
   130.000 -1.325453  1.049321 -0.541815
   131.000 -1.339790  1.017999 -0.541744
   132.000 -1.352322  0.986554 -0.541412
   133.000 -1.363039  0.955025 -0.540805
   134.000 -1.371931  0.923452 -0.539906
   135.000 -1.378994  0.891874 -0.538704
   136.000 -1.384225  0.860329 -0.537183
   137.000 -1.387628  0.828857 -0.535333
   138.000 -1.389208  0.797496 -0.533139
   139.000 -1.388973  0.766286 -0.530592
   140.000 -1.386937  0.735264 -0.527682
   141.000 -1.383118  0.704468 -0.524398
   142.000 -1.377536  0.673936 -0.520733
   143.000 -1.370216  0.643706 -0.516680
   144.000 -1.361188  0.613812 -0.512234
   145.000 -1.350486  0.584293 -0.507391
   146.000 -1.338149  0.555182 -0.502148
   147.000 -1.324220  0.526516 -0.496506
   148.000 -1.308750  0.498328 -0.490467
   149.000 -1.291793  0.470653 -0.484034
   150.000 -1.273412  0.443522 -0.477215
   151.000 -1.253677  0.416968 -0.470021
   152.000 -1.232669  0.391022 -0.462465
   153.000 -1.210479  0.365714 -0.454567
   154.000 -1.187212  0.341074 -0.446352
   155.000 -1.162995  0.317131 -0.437852
   156.000 -1.137973  0.293911 -0.429109
   157.000 -1.112329  0.271443 -0.420179
   158.000 -1.086289  0.249750 -0.411133
   159.000 -1.060138  0.228857 -0.402071
   160.000 -1.034254  0.208789 -0.393122
   161.000 -1.009138  0.189566 -0.384471
   162.000 -0.985479  0.171211 -0.376373
   163.000 -0.964235  0.153743 -0.369191
   164.000 -0.946753  0.137182 -0.363442
   165.000 -0.934915  0.121544 -0.359859
   166.000 -0.931265  0.106846 -0.359445
   167.000 -0.938894  0.093104 -0.363437
   168.000 -0.960540  0.080331 -0.372971
   169.000 -0.995802  0.068540 -0.387999
   170.000 -1.035951  0.057742 -0.405234
   171.000 -1.060665  0.047948 -0.416760
   172.000 -1.047226  0.039167 -0.413498
   173.000 -0.989463  0.031405 -0.392689
   174.000 -0.901084  0.024670 -0.359447
   175.000 -0.799862  0.018966 -0.320670
   176.000 -0.695966  0.014297 -0.280372
   177.000 -0.591966  0.010665 -0.239591
   178.000 -0.487966  0.008072 -0.198383
   179.000 -0.383966  0.006518 -0.156764
   180.000 -0.279966  0.006000 -0.114750
   180.000 -0.279966  0.006000 -0.114750
