AeroDyn airfoil file Created with QBlade CE v 2.0.5.2_alpha windows on 30.03.2023 at 09:22:33 Compatible with AeroDyn v13.0.
Polar "EPPLER_422_AIRFOIL_Re0.800_M0.00_N9.0 360 M" on Foil "EPPLER 422 AIRFOIL" :: generated by QBlade
1              Number of airfoil tables in this file
0              Table ID parameter
27.00          Stall angle (deg)
0              No longer used, enter zero
0              No longer used, enter zero
0              No longer used, enter zero
0.00           Angle of attack for zero Cn for linear Cn curve (deg)
6.33432        Cn slope for zero lift for linear Cn curve (1/rad)
0.0453         Cn at stall value for positive angle of attack for linear Cn curve
-0.5986        Cn at stall value for negative angle of attack for linear Cn curve
3.50           Angle of attack for minimum CD (deg)
0.0095         Minimum CD value
  -180.000 -0.260956  0.006000 -0.106958
  -179.000 -0.162985  0.006517 -0.066477
  -178.000 -0.079973  0.008063 -0.032380
  -177.000 -0.019914  0.010635 -0.007827
  -176.000  0.017113  0.014226  0.007284
  -175.000  0.038270  0.018827  0.015970
  -174.000  0.051889  0.024431  0.021661
  -173.000  0.063549  0.031027  0.026629
  -172.000  0.075862  0.038603  0.031929
  -171.000  0.089613  0.047148  0.037874
  -170.000  0.104739  0.056647  0.044441
  -169.000  0.120875  0.067087  0.051489
  -168.000  0.137603  0.078451  0.058859
  -167.000  0.154544  0.090723  0.066410
  -166.000  0.171381  0.103884  0.074028
  -165.000  0.187862  0.117917  0.081628
  -164.000  0.203789  0.132801  0.089145
  -163.000  0.219009  0.148515  0.096534
  -162.000  0.233404  0.165038  0.103764
  -161.000  0.246886  0.182347  0.110815
  -160.000  0.259387  0.200419  0.117674
  -159.000  0.270858  0.219229  0.124339
  -158.000  0.281266  0.238753  0.130810
  -157.000  0.290589  0.258964  0.137092
  -156.000  0.298815  0.279836  0.143193
  -155.000  0.305940  0.301341  0.149124
  -154.000  0.311969  0.323452  0.154897
  -153.000  0.316911  0.346140  0.160528
  -152.000  0.320783  0.369377  0.166030
  -151.000  0.323607  0.393131  0.171421
  -150.000  0.325406  0.417374  0.176716
  -149.000  0.326211  0.442073  0.181932
  -148.000  0.326054  0.467200  0.187086
  -147.000  0.324971  0.492721  0.192193
  -146.000  0.323001  0.518605  0.197269
  -145.000  0.320185  0.544819  0.202330
  -144.000  0.316565  0.571332  0.207389
  -143.000  0.312188  0.598110  0.212460
  -142.000  0.307099  0.625121  0.217556
  -141.000  0.301347  0.652331  0.222687
  -140.000  0.294980  0.679707  0.227863
  -139.000  0.288049  0.707217  0.233094
  -138.000  0.280603  0.734826  0.238387
  -137.000  0.272694  0.762501  0.243747
  -136.000  0.264372  0.790208  0.249178
  -135.000  0.255688  0.817915  0.254684
  -134.000  0.246691  0.845589  0.260266
  -133.000  0.237433  0.873195  0.265924
  -132.000  0.227960  0.900702  0.271655
  -131.000  0.218323  0.928076  0.277457
  -130.000  0.208566  0.955285  0.283325
  -129.000  0.198737  0.982297  0.289252
  -128.000  0.188877  1.009080  0.295232
  -127.000  0.179031  1.035603  0.301254
  -126.000  0.169237  1.061833  0.307308
  -125.000  0.159535  1.087742  0.313383
  -124.000  0.149960  1.113298  0.319467
  -123.000  0.140548  1.138471  0.325544
  -122.000  0.131328  1.163232  0.331602
  -121.000  0.122332  1.187553  0.337623
  -120.000  0.113585  1.211404  0.343592
  -119.000  0.105112  1.234760  0.349491
  -118.000  0.096935  1.257592  0.355304
  -117.000  0.089072  1.279874  0.361011
  -116.000  0.081540  1.301581  0.366596
  -115.000  0.074353  1.322687  0.372039
  -114.000  0.067520  1.343169  0.377321
  -113.000  0.061051  1.363003  0.382425
  -112.000  0.054262  1.382165  0.387256
  -111.000  0.048555  1.400636  0.391954
  -110.000  0.043219  1.418392  0.396420
  -109.000  0.038252  1.435414  0.400636
  -108.000  0.033649  1.451683  0.404587
  -107.000  0.029403  1.467180  0.408256
  -106.000  0.025504  1.481888  0.411628
  -105.000  0.021942  1.495790  0.414691
  -104.000  0.018703  1.508869  0.417430
  -103.000  0.015771  1.521112  0.419835
  -102.000  0.013129  1.532504  0.421894
  -101.000  0.010759  1.543032  0.423598
  -100.000  0.008639  1.552685  0.424940
   -99.000  0.006747  1.561452  0.425911
   -98.000  0.005062  1.569323  0.426507
   -97.000  0.003558  1.576288  0.426723
   -96.000  0.002210  1.582341  0.426556
   -95.000  0.000993  1.587474  0.426006
   -94.000 -0.000119  1.591681  0.425072
   -93.000 -0.001155  1.594958  0.423755
   -92.000 -0.002140  1.597301  0.422059
   -91.000 -0.003101  1.598708  0.419987
   -90.000 -0.004067  1.599176  0.417545
   -89.000 -0.005062  1.598705  0.414739
   -88.000 -0.006115  1.597296  0.411578
   -87.000 -0.007251  1.594951  0.408070
   -86.000 -0.008494  1.591671  0.404225
   -85.000 -0.009868  1.587462  0.400056
   -84.000 -0.011398  1.582326  0.395574
   -83.000 -0.013105  1.576271  0.390792
   -82.000 -0.015010  1.569303  0.385725
   -81.000 -0.017131  1.561430  0.380386
   -80.000 -0.019487  1.552660  0.374793
   -79.000 -0.022094  1.543004  0.368959
   -78.000 -0.024966  1.532473  0.362903
   -77.000 -0.028115  1.521078  0.356641
   -76.000 -0.031553  1.508832  0.350190
   -75.000 -0.035287  1.495749  0.343568
   -74.000 -0.039325  1.481844  0.336791
   -73.000 -0.043671  1.467133  0.329879
   -72.000 -0.048328  1.451632  0.322848
   -71.000 -0.053295  1.435359  0.315715
   -70.000 -0.058570  1.418333  0.308499
   -69.000 -0.064150  1.400572  0.301216
   -68.000 -0.070028  1.382098  0.293883
   -67.000 -0.076195  1.362930  0.286515
   -66.000 -0.082640  1.343091  0.279129
   -65.000 -0.089351  1.322604  0.271740
   -64.000 -0.096313  1.301492  0.264363
   -63.000 -0.103509  1.279779  0.257010
   -62.000 -0.110919  1.257491  0.249696
   -61.000 -0.118522  1.234652  0.242433
   -60.000 -0.126296  1.211289  0.235232
   -59.000 -0.134215  1.187430  0.228104
   -58.000 -0.142254  1.163100  0.221060
   -57.000 -0.150385  1.138330  0.214109
   -56.000 -0.158578  1.113147  0.207258
   -55.000 -0.166802  1.087581  0.200515
   -54.000 -0.175025  1.061661  0.193887
   -53.000 -0.183214  1.035418  0.187379
   -52.000 -0.191335  1.008882  0.180997
   -51.000 -0.199353  0.982084  0.174744
   -50.000 -0.207232  0.955055  0.168623
   -49.000 -0.214937  0.927829  0.162637
   -48.000 -0.222430  0.900435  0.156787
   -47.000 -0.229674  0.872907  0.151075
   -46.000 -0.236634  0.845277  0.145499
   -45.000 -0.243272  0.817577  0.140061
   -44.000 -0.249552  0.789841  0.134759
   -43.000 -0.255439  0.762101  0.129591
   -42.000 -0.260899  0.734390  0.124555
   -41.000 -0.265899  0.706740  0.119650
   -40.000 -0.270406  0.679185  0.114871
   -39.000 -0.274391  0.651756  0.110216
   -38.000 -0.277827  0.624486  0.105682
   -37.000 -0.280690  0.597407  0.101266
   -36.000 -0.282961  0.570550  0.096965
   -35.000 -0.284624  0.543947  0.092776
   -34.000 -0.285671  0.517626  0.088696
   -33.000 -0.286102  0.491618  0.084724
   -32.000 -0.285925  0.465950  0.080861
   -31.000 -0.285166  0.440649  0.077106
   -30.000 -0.283868  0.415738  0.073464
   -29.000 -0.282101  0.391239  0.066506
   -28.000 -0.279969  0.367169  0.059549
   -27.000 -0.277633  0.343540  0.052591
   -26.000 -0.275330  0.320357  0.045634
   -25.000 -0.273413  0.297612  0.038676
   -24.000 -0.272415  0.275281  0.031718
   -23.000 -0.273152  0.253313  0.024761
   -22.000 -0.276894  0.231616  0.017803
   -21.000 -0.285654  0.210035  0.010846
   -20.000 -0.302669  0.188308  0.003888
   -19.000 -0.333147  0.166015 -0.003070
   -18.000 -0.385209  0.142517 -0.010027
   -17.000 -0.470044  0.116997 -0.016985
   -16.000 -0.597266  0.088952 -0.023942
   -15.000 -0.238900  0.163030 -0.030900
   -14.000 -0.212900  0.153150 -0.033000
   -13.500 -0.182500  0.145660 -0.039900
   -13.000 -0.146600  0.137620 -0.048500
   -12.500 -0.062300  0.125270 -0.072200
   -12.000 -0.048900  0.120730 -0.073300
    -8.500  0.058500  0.085270 -0.087000
    -7.500  0.040100  0.066760 -0.093600
    -7.000  0.045800  0.062110 -0.095500
    -6.500  0.060600  0.055050 -0.102100
    -6.000  0.088900  0.047730 -0.110400
    -5.500  0.100100  0.019090 -0.130200
    -5.000  0.144900  0.015700 -0.129100
    -4.500  0.194000  0.013840 -0.127800
    -4.000  0.246800  0.012530 -0.126900
    -3.500  0.301200  0.011610 -0.126200
    -3.000  0.356700  0.011200 -0.125700
    -2.500  0.410300  0.010070 -0.124500
    -2.000  0.463900  0.009660 -0.123800
    -1.500  0.518100  0.009670 -0.123300
    -1.000  0.573400  0.009760 -0.122900
    -0.500  0.629400  0.009700 -0.122600
     0.000  0.685500  0.009700 -0.122400
     0.500  0.741400  0.009720 -0.122100
     1.000  0.796800  0.009660 -0.121800
     1.500  0.852000  0.009740 -0.121400
     2.000  0.906200  0.009750 -0.121000
     2.500  0.959400  0.009830 -0.120400
     3.000  1.010900  0.009890 -0.119600
     3.500  1.082300  0.009480 -0.123300
     4.000  1.134500  0.009800 -0.122500
     4.500  1.187000  0.009970 -0.121800
     5.000  1.239200  0.010120 -0.121100
     5.500  1.291100  0.010310 -0.120400
     6.000  1.342400  0.010530 -0.119700
     6.500  1.393500  0.010750 -0.118900
     7.000  1.443100  0.010950 -0.117900
     7.500  1.490600  0.011280 -0.116600
     8.000  1.535400  0.011790 -0.114900
     8.500  1.582100  0.012390 -0.113700
     9.000  1.629600  0.012540 -0.112500
     9.500  1.676400  0.012800 -0.111200
    10.000  1.719800  0.013060 -0.109400
    10.500  1.758700  0.013450 -0.106800
    11.000  1.789600  0.014080 -0.103000
    11.500  1.818600  0.014980 -0.099200
    12.000  1.858700  0.015430 -0.097300
    12.500  1.890200  0.016230 -0.094300
    13.000  1.905200  0.017820 -0.089500
    13.500  1.923900  0.019480 -0.085700
    14.000  1.922000  0.022650 -0.080700
    14.500  1.919600  0.026530 -0.077000
    15.000  1.893800  0.032880 -0.073200
    15.500  1.873700  0.039470 -0.070900
    16.000  1.835700  0.048270 -0.069000
    16.500  1.795700  0.057940 -0.068100
    17.000  1.764700  0.067360 -0.068200
    17.500  1.717400  0.079150 -0.069100
    18.000  1.707500  0.086320 -0.069900
    19.000  1.656500  0.105380 -0.073600
    19.500  1.657800  0.111300 -0.075000
    20.000  1.628600  0.122160 -0.078300
    21.000  2.195859  0.121257 -0.096452
    22.000  2.208877  0.137999 -0.114603
    23.000  2.218555  0.156082 -0.132755
    24.000  2.225307  0.175474 -0.150906
    25.000  2.229519  0.196137 -0.169058
    26.000  2.231547  0.218026 -0.187209
    27.000  2.231708  0.241089 -0.205361
    28.000  2.230285  0.265269 -0.223512
    29.000  2.227523  0.290506 -0.241664
    30.000  2.223629  0.316739 -0.259815
    31.000  2.218778  0.343905 -0.277967
    32.000  2.213112  0.371938 -0.296119
    33.000  2.206742  0.400777 -0.314270
    34.000  2.199756  0.430355 -0.332422
    35.000  2.192215  0.460611 -0.350573
    36.000  2.184163  0.491483 -0.353284
    37.000  2.175621  0.522909 -0.356042
    38.000  2.166601  0.554829 -0.358851
    39.000  2.157098  0.587186 -0.361710
    40.000  2.147097  0.619922 -0.364618
    41.000  2.136577  0.652981 -0.367570
    42.000  2.125507  0.686309 -0.370562
    43.000  2.113853  0.719853 -0.373588
    44.000  2.101575  0.753561 -0.376641
    45.000  2.088634  0.787381 -0.379713
    46.000  2.074985  0.821264 -0.382796
    47.000  2.060585  0.855161 -0.385883
    48.000  2.045390  0.889025 -0.388965
    49.000  2.029358  0.922808 -0.392034
    50.000  2.012445  0.956465 -0.395082
    51.000  1.994612  0.989951 -0.398100
    52.000  1.975819  1.023222 -0.401082
    53.000  1.956031  1.056234 -0.404020
    54.000  1.935213  1.088945 -0.406906
    55.000  1.913335  1.121313 -0.409736
    56.000  1.890368  1.153298 -0.412502
    57.000  1.866287  1.184859 -0.415200
    58.000  1.841069  1.215957 -0.417825
    59.000  1.814695  1.246554 -0.420374
    60.000  1.787149  1.276613 -0.422841
    61.000  1.758419  1.306096 -0.425225
    62.000  1.728494  1.334968 -0.427524
    63.000  1.697367  1.363194 -0.429735
    64.000  1.665037  1.390740 -0.431858
    65.000  1.631502  1.417572 -0.433893
    66.000  1.596767  1.443659 -0.435839
    67.000  1.560836  1.468970 -0.437699
    68.000  1.523719  1.493474 -0.439472
    69.000  1.485428  1.517143 -0.441162
    70.000  1.445980  1.539948 -0.442770
    71.000  1.405391  1.561863 -0.444300
    72.000  1.363683  1.582862 -0.445756
    73.000  1.320881  1.602921 -0.447141
    74.000  1.277009  1.622015 -0.448460
    75.000  1.232099  1.640123 -0.449719
    76.000  1.186181  1.657224 -0.450921
    77.000  1.139290  1.673298 -0.452073
    78.000  1.091464  1.688328 -0.453181
    79.000  1.042740  1.702295 -0.454251
    80.000  0.993162  1.715184 -0.455288
    81.000  0.942773  1.726981 -0.456301
    82.000  0.891619  1.737673 -0.457294
    83.000  0.839748  1.747248 -0.458276
    84.000  0.787210  1.755697 -0.459252
    85.000  0.734057  1.763009 -0.460230
    86.000  0.680344  1.769178 -0.461215
    87.000  0.626124  1.774198 -0.462216
    88.000  0.571457  1.778065 -0.463237
    89.000  0.516400  1.780775 -0.464285
    90.000  0.461013  1.782327 -0.465366
    91.000  0.405358  1.782721 -0.466485
    92.000  0.349497  1.781957 -0.467648
    93.000  0.293495  1.780040 -0.468860
    94.000  0.237415  1.776973 -0.470124
    95.000  0.181324  1.772761 -0.471446
    96.000  0.125288  1.767413 -0.472827
    97.000  0.069374  1.760936 -0.474272
    98.000  0.013649  1.753341 -0.475782
    99.000 -0.041818  1.744639 -0.477358
   100.000 -0.096960  1.734842 -0.479001
   101.000 -0.151706  1.723965 -0.480713
   102.000 -0.205990  1.712024 -0.482491
   103.000 -0.259742  1.699035 -0.484334
   104.000 -0.312895  1.685016 -0.486241
   105.000 -0.365379  1.669987 -0.488209
   106.000 -0.417127  1.653969 -0.490233
   107.000 -0.468074  1.636983 -0.492309
   108.000 -0.518151  1.619052 -0.494431
   109.000 -0.567293  1.600202 -0.496593
   110.000 -0.731947  1.580456 -0.510510
   111.000 -0.776723  1.559843 -0.513115
   112.000 -0.820429  1.538388 -0.515719
   113.000 -0.863003  1.516122 -0.518313
   114.000 -0.904383  1.493073 -0.520888
   115.000 -0.944510  1.469272 -0.523431
   116.000 -0.983328  1.444750 -0.525932
   117.000 -1.020780  1.419540 -0.528378
   118.000 -1.056813  1.393675 -0.530756
   119.000 -1.091376  1.367189 -0.533052
   120.000 -1.124421  1.340116 -0.535252
   121.000 -1.155900  1.312491 -0.537341
   122.000 -1.185769  1.284351 -0.539305
   123.000 -1.213988  1.255732 -0.541127
   124.000 -1.240517  1.226671 -0.542791
   125.000 -1.265321  1.197206 -0.544281
   126.000 -1.288367  1.167374 -0.545581
   127.000 -1.309625  1.137213 -0.546674
   128.000 -1.329068  1.106763 -0.547543
   129.000 -1.346672  1.076062 -0.548172
   130.000 -1.362417  1.045150 -0.548544
   131.000 -1.376287  1.014065 -0.548642
   132.000 -1.388267  0.982848 -0.548452
   133.000 -1.398348  0.951537 -0.547956
   134.000 -1.406523  0.920172 -0.547140
   135.000 -1.412790  0.888793 -0.545990
   136.000 -1.417149  0.857438 -0.544491
   137.000 -1.419605  0.826148 -0.542630
   138.000 -1.420166  0.794961 -0.540394
   139.000 -1.418846  0.763917 -0.537773
   140.000 -1.415659  0.733052 -0.534756
   141.000 -1.410626  0.702407 -0.531334
   142.000 -1.403772  0.672018 -0.527498
   143.000 -1.395124  0.641924 -0.523243
   144.000 -1.384716  0.612160 -0.518563
   145.000 -1.372583  0.582763 -0.513454
   146.000 -1.358767  0.553769 -0.507914
   147.000 -1.343313  0.525213 -0.501944
   148.000 -1.326272  0.497129 -0.495545
   149.000 -1.307700  0.469552 -0.488721
   150.000 -1.287657  0.442514 -0.481479
   151.000 -1.266210  0.416048 -0.473827
   152.000 -1.243433  0.390185 -0.465778
   153.000 -1.219405  0.364955 -0.457346
   154.000 -1.194216  0.340388 -0.448551
   155.000 -1.167966  0.316513 -0.439416
   156.000 -1.140765  0.293357 -0.429970
   157.000 -1.112741  0.270948 -0.420248
   158.000 -1.084039  0.249310 -0.410293
   159.000 -1.054830  0.228470 -0.400159
   160.000 -1.025317  0.208449 -0.389914
   161.000 -0.995744  0.189271 -0.379642
   162.000 -0.966417  0.170957 -0.369452
   163.000 -0.937714  0.153527 -0.359484
   164.000 -0.910123  0.136999 -0.349922
   165.000 -0.884268  0.121393 -0.341006
   166.000 -0.860951  0.106724 -0.333049
   167.000 -0.841184  0.093007 -0.326452
   168.000 -0.826171  0.080257 -0.321701
   169.000 -0.817147  0.068487 -0.319304
   170.000 -0.814879  0.057707 -0.319596
   171.000 -0.818501  0.047929 -0.322284
   172.000 -0.823608  0.039161 -0.325663
   173.000 -0.820716  0.031411 -0.325979
   174.000 -0.797307  0.024686 -0.318170
   175.000 -0.745133  0.018989 -0.298775
   176.000 -0.666430  0.014327 -0.268491
   177.000 -0.571095  0.010699 -0.231153
   178.000 -0.468839  0.008109 -0.190612
   179.000 -0.364956  0.006556 -0.149005
   180.000 -0.260956  0.006039 -0.106958
   180.000 -0.260956  0.006000 -0.106958
